344
 generated by VMD
 C         2.417169        0.924489       25.624792
 C         1.655429        1.989205       26.165400
 C         1.505810        2.104737       27.570978
 C         0.283045        2.572405       28.111586
 C         2.560352        0.376806       21.408054
 C         2.048338        1.581675       21.948662
 C         1.927419        1.726975       23.354240
 C         0.835592        2.449320       23.894848
 C         0.654574        2.503781       25.300428
 C        -0.654574        2.503781       25.841036
 C        -0.835592        2.449320       27.246614
 C        -1.927419        1.726975       27.787222
 C         2.256803        1.266579       19.137503
 C         1.348157        2.209039       19.678110
 C         1.183311        2.301556       21.083691
 C        -0.094516        2.586204       21.624298
 C        -0.283045        2.572405       23.029877
 C        -1.505810        2.104737       23.570484
 C        -1.655429        1.989205       24.976063
 C        -2.417169        0.924489       25.516670
 C        -2.478204        0.745580       26.922251
 C        -2.526016       -0.562694       27.462858
 C         2.478204        0.745580       14.920765
 C         1.796216        1.863060       15.461372
 C         1.655429        1.989205       16.866951
 C         0.470064        2.544882       17.407558
 C         0.283045        2.572405       18.813139
 C        -1.012152        2.381792       19.353746
 C        -1.183311        2.301556       20.759325
 C        -2.158328        1.427937       21.299932
 C        -2.256803        1.266579       22.705513
 C        -2.587930        0.000000       23.246120
 C        -2.581027       -0.188907       24.651699
 C        -2.158328       -1.427937       25.192307
 C        -2.048338       -1.581675       26.597885
 C        -1.012152       -2.381792       27.138493
 C         2.581027        0.188907       10.704027
 C         2.158328        1.427937       11.244635
 C         2.048338        1.581675       12.650214
 C         1.012152        2.381792       13.190822
 C         0.835592        2.449320       14.596400
 C        -0.470064        2.544882       15.137008
 C        -0.654574        2.503781       16.542587
 C        -1.796216        1.863060       17.083195
 C        -1.927419        1.726975       18.488773
 C        -2.526016        0.562694       19.029381
 C        -2.560352        0.376806       20.434961
 C        -2.417169       -0.924489       20.975569
 C        -2.343237       -1.098464       22.381147
 C        -1.505810       -2.104737       22.921755
 C        -1.348157       -2.209039       24.327335
 C        -0.094516       -2.586204       24.867943
 C         0.094516       -2.586204       26.273521
 C         1.348157       -2.209039       26.814129
 C         2.343237        1.098464        8.433475
 C         1.505810        2.104737        8.974083
 C         1.348157        2.209039       10.379663
 C         0.094516        2.586204       10.920270
 C        -0.094516        2.586204       12.325850
 C        -1.348157        2.209039       12.866457
 C        -1.505810        2.104737       14.272037
 C        -2.343237        1.098464       14.812644
 C        -2.417169        0.924489       16.218224
 C        -2.560352       -0.376806       16.758831
 C        -2.526016       -0.562694       18.164410
 C        -1.927419       -1.726975       18.705017
 C        -1.796216       -1.863060       20.110596
 C        -0.654574       -2.503781       20.651203
 C        -0.470064       -2.544882       22.056784
 C         0.835592       -2.449320       22.597391
 C         1.012152       -2.381792       24.002970
 C         2.048338       -1.581675       24.543577
 C         2.158328       -1.427937       25.949156
 C         2.581027       -0.188907       26.489763
 C         2.526016        0.562694        4.216738
 C         1.927419        1.726975        4.757345
 C         1.796216        1.863060        6.162925
 C         0.654574        2.503781        6.703532
 C         0.470064        2.544882        8.109112
 C        -0.835592        2.449320        8.649719
 C        -1.012152        2.381792       10.055298
 C        -2.048338        1.581675       10.595905
 C        -2.158328        1.427937       12.001485
 C        -2.581027        0.188907       12.542092
 C        -2.587930        0.000000       13.947672
 C        -2.256803       -1.266579       14.488279
 C        -2.158328       -1.427937       15.893859
 C        -1.183311       -2.301556       16.434465
 C        -1.012152       -2.381792       17.840046
 C         0.283045       -2.572405       18.380653
 C         0.470064       -2.544882       19.786232
 C         1.655429       -1.989205       20.326839
 C         1.796216       -1.863060       21.732418
 C         2.478204       -0.745580       22.273026
 C         2.526016       -0.562694       23.678606
 C         2.478204        0.745580       24.219213
 C         2.587930        0.000000        0.000000
 C         2.256803        1.266579        0.540607
 C         2.158328        1.427937        1.946187
 C         1.183311        2.301556        2.486794
 C         1.012152        2.381792        3.892374
 C        -0.283045        2.572405        4.432981
 C        -0.470064        2.544882        5.838560
 C        -1.655429        1.989205        6.379168
 C        -1.796216        1.863060        7.784747
 C        -2.478204        0.745580        8.325355
 C        -2.526016        0.562694        9.730934
 C        -2.478204       -0.745580       10.271542
 C        -2.417169       -0.924489       11.677120
 C        -1.655429       -1.989205       12.217728
 C        -1.505810       -2.104737       13.623307
 C        -0.283045       -2.572405       14.163915
 C        -0.094516       -2.586204       15.569494
 C         1.183311       -2.301556       16.110102
 C         1.348157       -2.209039       17.515680
 C         2.256803       -1.266579       18.056288
 C         2.343237       -1.098464       19.461868
 C         2.581027        0.188907       20.002476
 C         0.094516        2.586204        1.621822
 C        -1.183311        2.301556        2.162430
 C        -1.348157        2.209039        3.568009
 C        -2.256803        1.266579        4.108616
 C        -2.343237        1.098464        5.514196
 C        -2.581027       -0.188907        6.054803
 C        -2.560352       -0.376806        7.460382
 C        -2.048338       -1.581675        8.000990
 C        -1.927419       -1.726975        9.406569
 C        -0.835592       -2.449320        9.947177
 C        -0.654574       -2.503781       11.352757
 C         0.654574       -2.503781       11.893364
 C         0.835592       -2.449320       13.298943
 C         1.927419       -1.726975       13.839550
 C         2.048338       -1.581675       15.245130
 C         2.560352       -0.376806       15.785737
 C         2.581027       -0.188907       17.191317
 C         2.343237        1.098464       17.731924
 C        -2.048338        1.581675        1.297458
 C        -2.560352        0.376806        1.838065
 C        -2.581027        0.188907        3.243644
 C        -2.343237       -1.098464        3.784252
 C        -2.256803       -1.266579        5.189831
 C        -1.348157       -2.209039        5.730439
 C        -1.183311       -2.301556        7.136018
 C         0.094516       -2.586204        7.676626
 C         0.283045       -2.572405        9.082205
 C         1.505810       -2.104737        9.622812
 C         1.655429       -1.989205       11.028392
 C         2.417169       -0.924489       11.568999
 C         2.478204       -0.745580       12.974578
 C         2.526016        0.562694       13.515185
 C        -2.478204       -0.745580        0.973093
 C        -1.796216       -1.863060        1.513701
 C        -1.655429       -1.989205        2.919280
 C        -0.470064       -2.544882        3.459888
 C        -0.283045       -2.572405        4.865467
 C         1.012152       -2.381792        5.406075
 C         1.183311       -2.301556        6.811654
 C         2.158328       -1.427937        7.352261
 C         2.256803       -1.266579        8.757840
 C         2.587930       -0.000000        9.298448
 C        -0.835592       -2.449320        0.648729
 C         0.470064       -2.544882        1.189336
 C         0.654574       -2.503781        2.594916
 C         1.796216       -1.863060        3.135523
 C         1.927419       -1.726975        4.541102
 C         2.526016       -0.562694        5.081710
 C         2.560352       -0.376806        6.487289
 C         2.417169        0.924489        7.027896
 C         1.505810       -2.104737        0.324364
 C         2.343237       -1.098464        0.864972
 C         2.417169       -0.924489        2.270551
 C         2.560352        0.376806        2.811159
 C         2.417169        0.924489       53.520134
 C         1.655429        1.989205       54.060741
 C         1.505810        2.104737       55.466324
 C         0.283045        2.572405       56.006931
 C         2.560352        0.376806       49.303398
 C         2.048338        1.581675       49.844006
 C         1.927419        1.726975       51.249584
 C         0.835592        2.449320       51.790192
 C         0.654574        2.503781       53.195770
 C        -0.654574        2.503781       53.736378
 C        -0.835592        2.449320       55.141956
 C        -1.927419        1.726975       55.682564
 C         2.256803        1.266579       47.032848
 C         1.348157        2.209039       47.573456
 C         1.183311        2.301556       48.979034
 C        -0.094516        2.586204       49.519642
 C        -0.283045        2.572405       50.925220
 C        -1.505810        2.104737       51.465828
 C        -1.655429        1.989205       52.871407
 C        -2.417169        0.924489       53.412014
 C        -2.478204        0.745580       54.817593
 C        -2.526016       -0.562694       55.358200
 C         2.478204        0.745580       42.816109
 C         1.796216        1.863060       43.356716
 C         1.655429        1.989205       44.762295
 C         0.470064        2.544882       45.302902
 C         0.283045        2.572405       46.708481
 C        -1.012152        2.381792       47.249088
 C        -1.183311        2.301556       48.654671
 C        -2.158328        1.427937       49.195278
 C        -2.256803        1.266579       50.600857
 C        -2.587930        0.000000       51.141464
 C        -2.581027       -0.188907       52.547043
 C        -2.158328       -1.427937       53.087650
 C        -2.048338       -1.581675       54.493229
 C        -1.012152       -2.381792       55.033836
 C         2.581027        0.188907       38.599369
 C         2.158328        1.427937       39.139977
 C         2.048338        1.581675       40.545559
 C         1.012152        2.381792       41.086166
 C         0.835592        2.449320       42.491745
 C        -0.470064        2.544882       43.032352
 C        -0.654574        2.503781       44.437931
 C        -1.796216        1.863060       44.978539
 C        -1.927419        1.726975       46.384117
 C        -2.526016        0.562694       46.924725
 C        -2.560352        0.376806       48.330303
 C        -2.417169       -0.924489       48.870911
 C        -2.343237       -1.098464       50.276489
 C        -1.505810       -2.104737       50.817097
 C        -1.348157       -2.209039       52.222679
 C        -0.094516       -2.586204       52.763287
 C         0.094516       -2.586204       54.168865
 C         1.348157       -2.209039       54.709473
 C         2.343237        1.098464       36.328819
 C         1.505810        2.104737       36.869427
 C         1.348157        2.209039       38.275005
 C         0.094516        2.586204       38.815613
 C        -0.094516        2.586204       40.221191
 C        -1.348157        2.209039       40.761799
 C        -1.505810        2.104737       42.167381
 C        -2.343237        1.098464       42.707989
 C        -2.417169        0.924489       44.113567
 C        -2.560352       -0.376806       44.654175
 C        -2.526016       -0.562694       46.059753
 C        -1.927419       -1.726975       46.600361
 C        -1.796216       -1.863060       48.005939
 C        -0.654574       -2.503781       48.546547
 C        -0.470064       -2.544882       49.952126
 C         0.835592       -2.449320       50.492733
 C         1.012152       -2.381792       51.898312
 C         2.048338       -1.581675       52.438919
 C         2.158328       -1.427937       53.844501
 C         2.581027       -0.188907       54.385109
 C         2.526016        0.562694       32.112080
 C         1.927419        1.726975       32.652687
 C         1.796216        1.863060       34.058270
 C         0.654574        2.503781       34.598877
 C         0.470064        2.544882       36.004456
 C        -0.835592        2.449320       36.545063
 C        -1.012152        2.381792       37.950642
 C        -2.048338        1.581675       38.491249
 C        -2.158328        1.427937       39.896828
 C        -2.581027        0.188907       40.437435
 C        -2.587930        0.000000       41.843014
 C        -2.256803       -1.266579       42.383621
 C        -2.158328       -1.427937       43.789204
 C        -1.183311       -2.301556       44.329811
 C        -1.012152       -2.381792       45.735390
 C         0.283045       -2.572405       46.275997
 C         0.470064       -2.544882       47.681576
 C         1.655429       -1.989205       48.222183
 C         1.796216       -1.863060       49.627762
 C         2.478204       -0.745580       50.168369
 C         2.526016       -0.562694       51.573948
 C         2.478204        0.745580       52.114555
 C         2.587930        0.000000       27.895344
 C         2.256803        1.266579       28.435951
 C         2.158328        1.427937       29.841530
 C         1.183311        2.301556       30.382137
 C         1.012152        2.381792       31.787718
 C        -0.283045        2.572405       32.328323
 C        -0.470064        2.544882       33.733902
 C        -1.655429        1.989205       34.274509
 C        -1.796216        1.863060       35.680092
 C        -2.478204        0.745580       36.220699
 C        -2.526016        0.562694       37.626278
 C        -2.478204       -0.745580       38.166885
 C        -2.417169       -0.924489       39.572464
 C        -1.655429       -1.989205       40.113071
 C        -1.505810       -2.104737       41.518650
 C        -0.283045       -2.572405       42.059258
 C        -0.094516       -2.586204       43.464836
 C         1.183311       -2.301556       44.005444
 C         1.348157       -2.209039       45.411026
 C         2.256803       -1.266579       45.951633
 C         2.343237       -1.098464       47.357212
 C         2.581027        0.188907       47.897820
 C         0.094516        2.586204       29.517166
 C        -1.183311        2.301556       30.057774
 C        -1.348157        2.209039       31.463352
 C        -2.256803        1.266579       32.003960
 C        -2.343237        1.098464       33.409538
 C        -2.581027       -0.188907       33.950146
 C        -2.560352       -0.376806       35.355724
 C        -2.048338       -1.581675       35.896332
 C        -1.927419       -1.726975       37.301914
 C        -0.835592       -2.449320       37.842522
 C        -0.654574       -2.503781       39.248100
 C         0.654574       -2.503781       39.788708
 C         0.835592       -2.449320       41.194286
 C         1.927419       -1.726975       41.734894
 C         2.048338       -1.581675       43.140472
 C         2.560352       -0.376806       43.681080
 C         2.581027       -0.188907       45.086658
 C         2.343237        1.098464       45.627266
 C        -2.048338        1.581675       29.192801
 C        -2.560352        0.376806       29.733408
 C        -2.581027        0.188907       31.138988
 C        -2.343237       -1.098464       31.679596
 C        -2.256803       -1.266579       33.085175
 C        -1.348157       -2.209039       33.625782
 C        -1.183311       -2.301556       35.031361
 C         0.094516       -2.586204       35.571968
 C         0.283045       -2.572405       36.977547
 C         1.505810       -2.104737       37.518154
 C         1.655429       -1.989205       38.923737
 C         2.417169       -0.924489       39.464344
 C         2.478204       -0.745580       40.869923
 C         2.526016        0.562694       41.410530
 C        -2.478204       -0.745580       28.868437
 C        -1.796216       -1.863060       29.409044
 C        -1.655429       -1.989205       30.814623
 C        -0.470064       -2.544882       31.355230
 C        -0.283045       -2.572405       32.760811
 C         1.012152       -2.381792       33.301418
 C         1.183311       -2.301556       34.706997
 C         2.158328       -1.427937       35.247604
 C         2.256803       -1.266579       36.653183
 C         2.587930       -0.000000       37.193790
 C        -0.835592       -2.449320       28.544073
 C         0.470064       -2.544882       29.084681
 C         0.654574       -2.503781       30.490259
 C         1.796216       -1.863060       31.030867
 C         1.927419       -1.726975       32.436447
 C         2.526016       -0.562694       32.977055
 C         2.560352       -0.376806       34.382633
 C         2.417169        0.924489       34.923241
 C         1.505810       -2.104737       28.219707
 C         2.343237       -1.098464       28.760315
 C         2.417169       -0.924489       30.165895
 C         2.560352        0.376806       30.706503
